#divinyl-benzene

! RKS B3LYP NumFreq

%elprop Polar 1
end

%basis basis _3_21G 
end

* xyz 0 1
  C      -1.253473      0.673562     -0.001768
  C      -1.188216     -0.732524     -0.001718
  C       0.037911     -1.386348     -0.001787
  C       1.253472     -0.673562     -0.000787
  C       1.188215      0.732524     -0.000806
  H      -2.101734     -1.315291     -0.002520
  H       0.066487     -2.471490     -0.001436
  H       2.101733      1.315292     -0.000537
  C       2.520853     -1.426335     -0.000357
  C       3.758089     -0.917661      0.002362
  H       3.950789      0.150588      0.004752
  H       2.402195     -2.508463     -0.002691
  H       4.631443     -1.560406      0.002911
  C      -2.520854      1.426334     -0.001230
  H      -2.402198      2.508461     -0.003945
  C      -3.758087      0.917662      0.002788
  H      -3.950784     -0.150586      0.006095
  H      -4.631440      1.560407      0.003945
  C      -0.037911      1.386348     -0.001865
  H      -0.066488      2.471490     -0.001404
*
